
#======================================================================
# CRYSTAL DATA
#----------------------------------------------------------------------
data_VESTA_phase_1

_chemical_name_common                  'MAPbBr3'
_cell_length_a                         59.083000
_cell_length_b                         59.078999
_cell_length_c                         5.963800
_cell_angle_alpha                      93.806900
_cell_angle_beta                       93.786903
_cell_angle_gamma                      94.465408
_cell_volume                           20654.911213
_space_group_name_H-M_alt              'P 1'
_space_group_IT_number                 1

loop_
_space_group_symop_operation_xyz
   'x, y, z'
   'x, y+0.1, z'
   'x, y+0.2, z'
   'x, y+0.3, z'
   'x, y+0.4, z'
   'x, y+1/2, z'
   'x, y+0.6, z'
   'x, y+0.7, z'
   'x, y+0.8, z'
   'x, y+0.9, z'
   'x+0.1, y, z'
   'x+0.1, y+0.1, z'
   'x+0.1, y+0.2, z'
   'x+0.1, y+0.3, z'
   'x+0.1, y+0.4, z'
   'x+0.1, y+1/2, z'
   'x+0.1, y+0.6, z'
   'x+0.1, y+0.7, z'
   'x+0.1, y+0.8, z'
   'x+0.1, y+0.9, z'
   'x+0.2, y, z'
   'x+0.2, y+0.1, z'
   'x+0.2, y+0.2, z'
   'x+0.2, y+0.3, z'
   'x+0.2, y+0.4, z'
   'x+0.2, y+1/2, z'
   'x+0.2, y+0.6, z'
   'x+0.2, y+0.7, z'
   'x+0.2, y+0.8, z'
   'x+0.2, y+0.9, z'
   'x+0.3, y, z'
   'x+0.3, y+0.1, z'
   'x+0.3, y+0.2, z'
   'x+0.3, y+0.3, z'
   'x+0.3, y+0.4, z'
   'x+0.3, y+1/2, z'
   'x+0.3, y+0.6, z'
   'x+0.3, y+0.7, z'
   'x+0.3, y+0.8, z'
   'x+0.3, y+0.9, z'
   'x+0.4, y, z'
   'x+0.4, y+0.1, z'
   'x+0.4, y+0.2, z'
   'x+0.4, y+0.3, z'
   'x+0.4, y+0.4, z'
   'x+0.4, y+1/2, z'
   'x+0.4, y+0.6, z'
   'x+0.4, y+0.7, z'
   'x+0.4, y+0.8, z'
   'x+0.4, y+0.9, z'
   'x+1/2, y, z'
   'x+1/2, y+0.1, z'
   'x+1/2, y+0.2, z'
   'x+1/2, y+0.3, z'
   'x+1/2, y+0.4, z'
   'x+1/2, y+1/2, z'
   'x+1/2, y+0.6, z'
   'x+1/2, y+0.7, z'
   'x+1/2, y+0.8, z'
   'x+1/2, y+0.9, z'
   'x+0.6, y, z'
   'x+0.6, y+0.1, z'
   'x+0.6, y+0.2, z'
   'x+0.6, y+0.3, z'
   'x+0.6, y+0.4, z'
   'x+0.6, y+1/2, z'
   'x+0.6, y+0.6, z'
   'x+0.6, y+0.7, z'
   'x+0.6, y+0.8, z'
   'x+0.6, y+0.9, z'
   'x+0.7, y, z'
   'x+0.7, y+0.1, z'
   'x+0.7, y+0.2, z'
   'x+0.7, y+0.3, z'
   'x+0.7, y+0.4, z'
   'x+0.7, y+1/2, z'
   'x+0.7, y+0.6, z'
   'x+0.7, y+0.7, z'
   'x+0.7, y+0.8, z'
   'x+0.7, y+0.9, z'
   'x+0.8, y, z'
   'x+0.8, y+0.1, z'
   'x+0.8, y+0.2, z'
   'x+0.8, y+0.3, z'
   'x+0.8, y+0.4, z'
   'x+0.8, y+1/2, z'
   'x+0.8, y+0.6, z'
   'x+0.8, y+0.7, z'
   'x+0.8, y+0.8, z'
   'x+0.8, y+0.9, z'
   'x+0.9, y, z'
   'x+0.9, y+0.1, z'
   'x+0.9, y+0.2, z'
   'x+0.9, y+0.3, z'
   'x+0.9, y+0.4, z'
   'x+0.9, y+1/2, z'
   'x+0.9, y+0.6, z'
   'x+0.9, y+0.7, z'
   'x+0.9, y+0.8, z'
   'x+0.9, y+0.9, z'

loop_
   _atom_site_label
   _atom_site_occupancy
   _atom_site_fract_x
   _atom_site_fract_y
   _atom_site_fract_z
   _atom_site_adp_type
   _atom_site_B_iso_or_equiv
   _atom_site_type_symbol
   Pb1        1.0     0.049810     0.051370     0.554400    Biso  1.000000 Pb
   Br1        1.0     0.046410     0.001400     0.511800    Biso  1.000000 Br
   Br2        1.0     0.099840     0.047980     0.512300    Biso  1.000000 Br
   Br3        1.0     0.053760     0.055240     0.045900    Biso  1.000000 Br
