
#======================================================================
# CRYSTAL DATA
#----------------------------------------------------------------------
data_VESTA_phase_1

_chemical_name_common                  'MAPbI3'
_cell_length_a                         63.115002
_cell_length_b                         63.115002
_cell_length_c                         6.316100
_cell_angle_alpha                      90.000000
_cell_angle_beta                       90.000000
_cell_angle_gamma                      90.000000
_cell_volume                           25160.206538
_space_group_name_H-M_alt              'P 1'
_space_group_IT_number                 1

loop_
_space_group_symop_operation_xyz
   'x, y, z'
   'x, y+0.1, z'
   'x, y+0.2, z'
   'x, y+0.3, z'
   'x, y+0.4, z'
   'x, y+1/2, z'
   'x, y+0.6, z'
   'x, y+0.7, z'
   'x, y+0.8, z'
   'x, y+0.9, z'
   'x+0.1, y, z'
   'x+0.1, y+0.1, z'
   'x+0.1, y+0.2, z'
   'x+0.1, y+0.3, z'
   'x+0.1, y+0.4, z'
   'x+0.1, y+1/2, z'
   'x+0.1, y+0.6, z'
   'x+0.1, y+0.7, z'
   'x+0.1, y+0.8, z'
   'x+0.1, y+0.9, z'
   'x+0.2, y, z'
   'x+0.2, y+0.1, z'
   'x+0.2, y+0.2, z'
   'x+0.2, y+0.3, z'
   'x+0.2, y+0.4, z'
   'x+0.2, y+1/2, z'
   'x+0.2, y+0.6, z'
   'x+0.2, y+0.7, z'
   'x+0.2, y+0.8, z'
   'x+0.2, y+0.9, z'
   'x+0.3, y, z'
   'x+0.3, y+0.1, z'
   'x+0.3, y+0.2, z'
   'x+0.3, y+0.3, z'
   'x+0.3, y+0.4, z'
   'x+0.3, y+1/2, z'
   'x+0.3, y+0.6, z'
   'x+0.3, y+0.7, z'
   'x+0.3, y+0.8, z'
   'x+0.3, y+0.9, z'
   'x+0.4, y, z'
   'x+0.4, y+0.1, z'
   'x+0.4, y+0.2, z'
   'x+0.4, y+0.3, z'
   'x+0.4, y+0.4, z'
   'x+0.4, y+1/2, z'
   'x+0.4, y+0.6, z'
   'x+0.4, y+0.7, z'
   'x+0.4, y+0.8, z'
   'x+0.4, y+0.9, z'
   'x+1/2, y, z'
   'x+1/2, y+0.1, z'
   'x+1/2, y+0.2, z'
   'x+1/2, y+0.3, z'
   'x+1/2, y+0.4, z'
   'x+1/2, y+1/2, z'
   'x+1/2, y+0.6, z'
   'x+1/2, y+0.7, z'
   'x+1/2, y+0.8, z'
   'x+1/2, y+0.9, z'
   'x+0.6, y, z'
   'x+0.6, y+0.1, z'
   'x+0.6, y+0.2, z'
   'x+0.6, y+0.3, z'
   'x+0.6, y+0.4, z'
   'x+0.6, y+1/2, z'
   'x+0.6, y+0.6, z'
   'x+0.6, y+0.7, z'
   'x+0.6, y+0.8, z'
   'x+0.6, y+0.9, z'
   'x+0.7, y, z'
   'x+0.7, y+0.1, z'
   'x+0.7, y+0.2, z'
   'x+0.7, y+0.3, z'
   'x+0.7, y+0.4, z'
   'x+0.7, y+1/2, z'
   'x+0.7, y+0.6, z'
   'x+0.7, y+0.7, z'
   'x+0.7, y+0.8, z'
   'x+0.7, y+0.9, z'
   'x+0.8, y, z'
   'x+0.8, y+0.1, z'
   'x+0.8, y+0.2, z'
   'x+0.8, y+0.3, z'
   'x+0.8, y+0.4, z'
   'x+0.8, y+1/2, z'
   'x+0.8, y+0.6, z'
   'x+0.8, y+0.7, z'
   'x+0.8, y+0.8, z'
   'x+0.8, y+0.9, z'
   'x+0.9, y, z'
   'x+0.9, y+0.1, z'
   'x+0.9, y+0.2, z'
   'x+0.9, y+0.3, z'
   'x+0.9, y+0.4, z'
   'x+0.9, y+1/2, z'
   'x+0.9, y+0.6, z'
   'x+0.9, y+0.7, z'
   'x+0.9, y+0.8, z'
   'x+0.9, y+0.9, z'

loop_
   _atom_site_label
   _atom_site_occupancy
   _atom_site_fract_x
   _atom_site_fract_y
   _atom_site_fract_z
   _atom_site_adp_type
   _atom_site_B_iso_or_equiv
   _atom_site_type_symbol
   Pb1        1.0     0.048610     0.048610     0.487500    Biso  1.000000 Pb
   I1         1.0     0.051200     0.098350     0.433200    Biso  1.000000 I
   I2         1.0     0.098350     0.051200     0.433200    Biso  1.000000 I
   I3         1.0     0.045320     0.045320     0.970200    Biso  1.000000 I
